Version 4.1
SHEET 1 6084 928
WIRE 3616 -144 3520 -144
WIRE 3520 -128 3520 -144
WIRE 3616 -112 3616 -144
WIRE 3728 -112 3616 -112
WIRE 3728 -96 3728 -112
WIRE 3744 -96 3728 -96
WIRE 4048 -96 4048 -224
WIRE 4048 -96 3920 -96
WIRE 3696 -80 3616 -80
WIRE 3696 -64 3696 -80
WIRE 3744 -64 3696 -64
WIRE 3520 -48 3520 -64
WIRE 3616 -48 3616 -80
WIRE 3616 -48 3520 -48
WIRE 4048 0 3920 0
WIRE 3616 64 3520 64
WIRE 3520 80 3520 64
WIRE 3616 96 3616 64
WIRE 3728 96 3616 96
WIRE 3728 112 3728 96
WIRE 3744 112 3728 112
WIRE 4048 112 4048 0
WIRE 4048 112 3920 112
WIRE 3696 128 3616 128
WIRE 5344 128 5264 128
WIRE 3696 144 3696 128
WIRE 3744 144 3696 144
WIRE 3520 160 3520 144
WIRE 3616 160 3616 128
WIRE 3616 160 3520 160
WIRE 5344 160 5344 128
WIRE 4048 208 3920 208
WIRE 4768 224 4768 192
WIRE 4768 224 4688 224
WIRE 4688 240 4688 224
WIRE 5344 256 5344 240
WIRE 4768 288 4768 224
WIRE 4048 320 4048 208
WIRE 4256 320 4048 320
WIRE 5344 320 5264 320
WIRE 5344 368 5344 320
WIRE 3616 384 3520 384
WIRE 3520 400 3520 384
WIRE 3616 416 3616 384
WIRE 3728 416 3616 416
WIRE 3728 432 3728 416
WIRE 3744 432 3728 432
WIRE 4048 432 4048 320
WIRE 4048 432 3920 432
WIRE 3696 448 3616 448
WIRE 3696 464 3696 448
WIRE 3744 464 3696 464
WIRE 5344 464 5344 448
WIRE 3520 480 3520 464
WIRE 3616 480 3616 448
WIRE 3616 480 3520 480
WIRE 4048 528 3920 528
WIRE 3616 592 3520 592
WIRE 3520 608 3520 592
WIRE 3616 624 3616 592
WIRE 3728 624 3616 624
WIRE 3728 640 3728 624
WIRE 3744 640 3728 640
WIRE 4048 640 4048 528
WIRE 4048 640 3920 640
WIRE 3696 656 3616 656
WIRE 3696 672 3696 656
WIRE 3744 672 3696 672
WIRE 3520 688 3520 672
WIRE 3616 688 3616 656
WIRE 3616 688 3520 688
WIRE 4048 736 3920 736
WIRE 4048 816 4048 736
FLAG 4048 816 -DC
FLAG 4768 368 -DC
FLAG 4048 -224 +DC
FLAG 4768 112 +DC
FLAG 4688 240 0
FLAG 5344 256 0
FLAG 5344 464 0
FLAG 5264 128 PWM1
IOPIN 5264 128 Out
FLAG 3744 736 PWM2
IOPIN 3744 736 In
FLAG 3744 -32 PWM1
IOPIN 3744 -32 In
FLAG 3744 176 PWM1
IOPIN 3744 176 In
FLAG 3744 704 PWM1
IOPIN 3744 704 In
FLAG 3744 496 PWM1
IOPIN 3744 496 In
FLAG 3744 0 PWM2
IOPIN 3744 0 In
FLAG 3744 208 PWM2
IOPIN 3744 208 In
FLAG 3744 528 PWM2
IOPIN 3744 528 In
FLAG 4256 320 AC
IOPIN 4256 320 Out
SYMBOL H-BRIDGE-ONLY\\H-Bridge-only 3856 -48 R0
SYMATTR InstName X1
SYMBOL H-BRIDGE-ONLY\\H-Bridge-only 3856 160 R0
SYMATTR InstName X2
SYMBOL H-BRIDGE-ONLY\\H-Bridge-only 3856 480 R0
SYMATTR InstName X3
SYMBOL H-BRIDGE-ONLY\\H-Bridge-only 3856 688 R0
SYMATTR InstName X4
SYMBOL cap 3504 -128 R0
SYMATTR InstName C1
SYMATTR Value {C}
SYMBOL cap 3504 80 R0
SYMATTR InstName C2
SYMATTR Value {C}
SYMBOL cap 3504 400 R0
SYMATTR InstName C3
SYMATTR Value {C}
SYMBOL cap 3504 608 R0
SYMATTR InstName C4
SYMATTR Value {C}
SYMBOL voltage 4768 96 R0
WINDOW 123 0 0 Left 0
WINDOW 39 0 0 Left 0
SYMATTR InstName V1
SYMATTR Value 10
SYMBOL voltage 4768 272 R0
WINDOW 123 0 0 Left 0
WINDOW 39 0 0 Left 0
SYMATTR InstName V2
SYMATTR Value 10
SYMBOL voltage 5344 144 R0
WINDOW 123 0 0 Left 0
WINDOW 39 0 0 Left 0
SYMATTR InstName V3
SYMATTR Value PULSE(0 {PWM_VON} 0 1m 1m {T_on} {T_period})
SYMBOL voltage 5344 352 R0
WINDOW 123 0 0 Left 0
WINDOW 39 0 0 Left 0
SYMATTR InstName V4
SYMATTR Value PULSE(0 {PWM_VON} {T_delay} 1m 1m {T_on} {T_period})
TEXT 3160 -248 Left 2 !.param C=1m
TEXT 3152 912 Left 2 !.tran 0.1
TEXT 5400 -288 Left 2 !.param D = 0.5 ;50% - max duty cycle\n.param PWM_VON=20\n.param f=50\n.param DT=2m\n.param DT_offset = (DT/2)\n \n.param T_period = 1/f\n.param T_delay=0.5*T_period\n.param T_on = (T_period*D)-DT_offset
