Version 4.1
SHEET 1 880 680
WIRE -240 -240 -352 -240
WIRE -240 -208 -240 -240
WIRE -352 -160 -352 -240
WIRE -352 -160 -528 -160
WIRE -352 -80 -352 -160
WIRE -240 -80 -240 -128
WIRE -528 -64 -528 -160
WIRE 608 -48 560 -48
WIRE -352 0 -352 -16
WIRE 608 0 608 -48
WIRE 400 32 256 32
WIRE -528 64 -528 16
WIRE -528 64 -608 64
WIRE -496 64 -528 64
WIRE 256 80 256 32
WIRE 400 80 400 32
WIRE -608 96 -608 64
WIRE -352 96 -352 80
WIRE -752 160 -864 160
WIRE -752 176 -752 160
WIRE -656 176 -752 176
WIRE -496 176 -496 64
WIRE -400 176 -496 176
WIRE 256 176 256 160
WIRE -864 240 -864 160
WIRE 400 240 400 160
WIRE 560 240 560 -48
WIRE 560 240 400 240
WIRE -352 256 -352 192
WIRE 288 256 176 256
WIRE -608 288 -608 192
WIRE 176 288 176 256
WIRE 416 320 400 320
WIRE -864 352 -864 320
WIRE 288 368 288 256
WIRE 320 368 288 368
WIRE 416 368 416 320
WIRE 416 368 384 368
WIRE 176 384 176 368
FLAG 256 176 0
FLAG 176 384 0
FLAG 608 0 0
FLAG -352 256 0
FLAG -608 288 0
FLAG -864 352 0
FLAG -240 -80 0
SYMBOL res 384 64 R0
SYMATTR InstName R1
SYMATTR Value 4.7k
SYMBOL res 384 224 R0
SYMATTR InstName R2
SYMATTR Value 10k
SYMBOL voltage 256 64 R0
WINDOW 123 0 0 Left 0
WINDOW 39 0 0 Left 0
SYMATTR InstName V1
SYMATTR Value 3.3
SYMBOL voltage 176 272 R0
WINDOW 123 0 0 Left 0
WINDOW 39 0 0 Left 0
SYMATTR InstName V2
SYMATTR Value 3.3
SYMBOL diode 320 384 R270
WINDOW 0 32 32 VTop 2
WINDOW 3 0 32 VBottom 2
SYMATTR InstName D1
SYMBOL nmos -656 96 R0
SYMATTR InstName M1
SYMATTR Value Si7336ADP
SYMBOL nmos -400 96 R0
SYMATTR InstName M2
SYMATTR Value BSC150N03LD
SYMBOL diode -368 -80 R0
SYMATTR InstName D2
SYMBOL res -368 -16 R0
SYMATTR InstName R3
SYMATTR Value 1k
SYMBOL voltage -240 -224 R0
WINDOW 123 0 0 Left 0
WINDOW 39 0 0 Left 0
SYMATTR InstName V3
SYMATTR Value 3.3
SYMBOL voltage -864 224 R0
WINDOW 123 0 0 Left 0
WINDOW 39 0 0 Left 0
SYMATTR InstName V4
SYMATTR Value 10
SYMBOL res -544 -80 R0
SYMATTR InstName R4
SYMATTR Value 1k
TEXT 136 424 Left 2 !.tran 1m
